%%%%%%%%%%%%%%%%%%%%%%%%%%%%%%%%%%%%%%%%%%%%%%%%%%%%%%%%%%%%%%%%%%%%%%%%%%%%%%%%%%%%%
%                                                                                   %
% SU2 configuration file                                                            %
% Case description: Axisymmetric, steady-state, turbulent jet case        	    %
% Author: Divyaprakash	                                                            %
% Institution: Indian Institute of Technology Delh                                  %
% Date: 2025/03/24                                                                  %
% File Version 7.5.0 "Blackbird"                                                    %
%                                                                                   %
%%%%%%%%%%%%%%%%%%%%%%%%%%%%%%%%%%%%%%%%%%%%%%%%%%%%%%%%%%%%%%%%%%%%%%%%%%%%%%%%%%%%%

% ------------- DIRECT, ADJOINT, AND LINEARIZED PROBLEM DEFINITION ------------%
%
SOLVER= INC_RANS
KIND_TURB_MODEL= SST
SST_OPTIONS= V2003m
RESTART_SOL= NO
%
% ---------------- INCOMPRESSIBLE FLOW CONDITION DEFINITION -------------------%
%
INC_DENSITY_MODEL= CONSTANT
INC_DENSITY_INIT= 998.2 
%
INC_ENERGY_EQUATION= NO
INC_TEMPERATURE_INIT= 293.15
%
INC_NONDIM= DIMENSIONAL
%
% -------------------- FLUID PROPERTIES ------------------------------------- %
%
FLUID_MODEL= CONSTANT_DENSITY
%
THERMODYNAMIC_PRESSURE = 101325.0
%
% --------------------------- VISCOSITY MODEL ---------------------------------%
%
VISCOSITY_MODEL= CONSTANT_VISCOSITY
%
MU_CONSTANT= 1.003E-03
%
% -------------------- BOUNDARY CONDITION DEFINITION --------------------------%
%
AXISYMMETRIC= YES
MARKER_SYM= ( symmetry )
INC_OUTLET_TYPE= PRESSURE_OUTLET PRESSURE_OUTLET
MARKER_OUTLET= ( outlet, 0.0, outlet_coflow, 0.0 )
INC_INLET_TYPE=  VELOCITY_INLET VELOCITY_INLET
MARKER_INLET= ( inlet, 293.15, 2.006, 1.0, 0.0, 0.0, inlet_coflow, 293.15, 0.2, 1.0, 0.0, 0.0 )
MARKER_INLET_TURBULENT= ( inlet, 0.05, 10, inlet_coflow, 0.01, 2 )
MARKER_FAR= ( farfield )

% ------------- COMMON PARAMETERS DEFINING THE NUMERICAL METHOD ---------------%
%
NUM_METHOD_GRAD= WEIGHTED_LEAST_SQUARES
%
CFL_NUMBER= 10.0
CFL_ADAPT= YES
CFL_ADAPT_PARAM= ( 0.1, 2.0, 10.0, 1e10, 0.001 )
CFL_REDUCTION_TURB= 0.5
%
ITER= 9999
%
% ------------------------ LINEAR SOLVER DEFINITION ---------------------------%
%
LINEAR_SOLVER= FGMRES
LINEAR_SOLVER_PREC= ILU
LINEAR_SOLVER_ERROR= 1E-5
LINEAR_SOLVER_ITER= 5
%
% -------------------- FLOW NUMERICAL METHOD DEFINITION -----------------------%
%
CONV_NUM_METHOD_FLOW= FDS
MUSCL_FLOW= NO
SLOPE_LIMITER_FLOW = NONE
TIME_DISCRE_FLOW= EULER_IMPLICIT
%
% --------------------------- CONVERGENCE PARAMETERS --------------------------%
%
CONV_FIELD= RMS_PRESSURE, RMS_VELOCITY-X, RMS_VELOCITY-Y, RMS_TKE
CONV_RESIDUAL_MINVAL= -14.0
CONV_CAUCHY_ELEMS= 100
CONV_CAUCHY_EPS= 1E-6
%
% ------------------------- INPUT/OUTPUT INFORMATION --------------------------%
%
MESH_FILENAME= jet_mesh.su2
%
SCREEN_OUTPUT= INNER_ITER WALL_TIME RMS_RES LINSOL_ITER LINSOL_RESIDUAL LINSOL_ITER_TURB LINSOL_RESIDUAL_TURB SURFACE_TOTAL_PRESSURE
SCREEN_WRT_FREQ_INNER= 10
%
HISTORY_OUTPUT= ITER RMS_RES LINSOL SURFACE_TOTAL_PRESSURE
CONV_FILENAME= history
MARKER_ANALYZE= inlet_air, outlet
MARKER_ANALYZE_AVERAGE= AREA
%
OUTPUT_FILES= RESTART_ASCII, PARAVIEW_MULTIBLOCK
VOLUME_OUTPUT= RESIDUAL, PRIMITIVE
OUTPUT_WRT_FREQ= 100
%
READ_BINARY_RESTART= NO
RESTART_FILENAME= restart
SOLUTION_FILENAME= solution
%
WRT_PERFORMANCE= YES
OUTPUT_PRECISION= 16
